1SyntheticUSA.txt

Case File Name = case_SyntheticUSA.m
OMP is Enabled
OMP Cores = 1
Solver is Set to Sparse

Loading case data... Successful! (0.407525 Secs)

Initializing case data... 
	Reordering bus numbers
  	Multiple reference Buses detected!
Successful! (5.058926 Secs)

Building Ybus... 
	MKL Peak Memory Use: 57263 KB -  55.92 MB
Successful! (0.097304 Secs)


CASE INFORMATION:
No. of Buses = 82000
No. of Branches = 104121
No. of PV Buses = 7739
No. of PQ Buses = 74258
No. of Generators = 13419
No. of Online Generators = 10475
Ref. Bus(es) = 30902, 77237, 81506, 

********************* Starting Power Flow Iterations (Sparse) *************************

Tolerance at F(x0) = 196.322388
Tolerance at iteration [1] = 15.2113294
Tolerance at iteration [2] = 13.8614136
Tolerance at iteration [3] = 1.5591087
Tolerance at iteration [4] = 0.0476932742
Tolerance at iteration [5] = 6.13304958e-05
Tolerance at iteration [6] = 1.20972657e-10
Power flow converged in [6] iterations!

********************************* End of Power Flow ***********************************

Power flow calculation... Successful!   (3.871234 Secs)
	memory allocation               (0.000489 Secs) (0.01 percent)
	initialize V, PVPQ, and F(X0)   (0.220804 Secs) (5.70 percent)
	calculate partial derivatives   (0.258117 Secs) (6.67 percent)
	form sparse jacobian arrays     (0.493889 Secs) (12.76 percent)
	form jacobian matirx            (0.021458 Secs) (0.55 percent)
	solve the linear system         (2.836578 Secs) (73.27 percent)
	update voltages                 (0.022575 Secs) (0.58 percent)
	calculate injected bus powers   (0.013252 Secs) (0.34 percent)
	calculate norm                  (0.002447 Secs) (0.06 percent)
	average time per iteration      (0.645206 Secs)
	MKL Peak Memory Use:            (348397 KB - 340.23 MB)

Total Calculation Time (Ybus + PF): (3.968538 Secs)


Power flow solution... Successful!          (0.073057 Secs)
       update generators Pg and Qg          (0.002778 Secs) (3.80 percent)
       calculate branch flows               (0.004170 Secs) (5.71 percent)
       calculate line losses                (0.001122 Secs) (1.54 percent)
       calculate line charging injection    (0.002200 Secs) (3.01 percent)
       calculate partial derivatives        (0.055209 Secs) (75.57 percent)
       calculate misc. information          (0.003688 Secs) (5.05 percent)
       MKL Peak Memory Use:                 (279733 KB - 273.18 MB)

Total Calculation Time (Ybus + PF + Solution): (4.041594 Secs)


=================================================== System Summary ====================================================
             How many?                             How much?                      P (MW)                 Q (MVAr)        
-----------------------------------     -------------------------------------------------------------------------------  
Buses                        82000         Total Generation Capacity           1108790.54        -119742.09 to 503573.01
Generators                   13419               On-line Capacity               947996.89        -102677.89 to 434174.64
   Comitted                  10475               Actual Generation              835350.88              173513.59
   Offline                    2944         Load                                 812684.74              217505.56
Loads                        37755         Shunt (inj)                              -0.00              -45209.20
Shunts                        3952         Line Losess                           22666.14              263489.65
Branches                    104121         Brnach Charging (inj)                      -                352690.81
   In-Service               104121        
   Out-Of-Service                0        
Transformers                 20696        
 
 
                                        Minimum                                                   Maximum 
                         -------------------------------------                     ------------------------------------ 
Voltage Magnitude                0.942 p.u. @ bus  20903                             1.114 p.u   @ bus   48532
Voltage Angle                  -122.92 deg  @ bus  18874                             94.92 deg   @ bus   61584
P Losses                                  -                                          62.26 MW    @ line 3008126-3005049
Q Losses                                  -                                         784.74 MVAr  @ line  59757-59774
=======================================================================================================================


Case File Name = case_SyntheticUSA.m
OMP is Enabled
OMP Cores = 1
Solver is Set to Sparse

Loading case data... Successful! (0.399690 Secs)

Initializing case data... 
	Reordering bus numbers
  	Multiple reference Buses detected!
Successful! (5.019786 Secs)

Building Ybus... 
	MKL Peak Memory Use: 57263 KB -  55.92 MB
Successful! (0.097634 Secs)


CASE INFORMATION:
No. of Buses = 82000
No. of Branches = 104121
No. of PV Buses = 7739
No. of PQ Buses = 74258
No. of Generators = 13419
No. of Online Generators = 10475
Ref. Bus(es) = 30902, 77237, 81506, 

********************* Starting Power Flow Iterations (Sparse) *************************

Tolerance at F(x0) = 196.322388
Tolerance at iteration [1] = 15.2113294
Tolerance at iteration [2] = 13.8614136
Tolerance at iteration [3] = 1.5591087
Tolerance at iteration [4] = 0.0476932742
Tolerance at iteration [5] = 6.13304958e-05
Tolerance at iteration [6] = 1.20972657e-10
Power flow converged in [6] iterations!

********************************* End of Power Flow ***********************************

Power flow calculation... Successful!   (3.862913 Secs)
	memory allocation               (0.000465 Secs) (0.01 percent)
	initialize V, PVPQ, and F(X0)   (0.220865 Secs) (5.72 percent)
	calculate partial derivatives   (0.254908 Secs) (6.60 percent)
	form sparse jacobian arrays     (0.495321 Secs) (12.82 percent)
	form jacobian matirx            (0.020771 Secs) (0.54 percent)
	solve the linear system         (2.831481 Secs) (73.30 percent)
	update voltages                 (0.021870 Secs) (0.57 percent)
	calculate injected bus powers   (0.013096 Secs) (0.34 percent)
	calculate norm                  (0.002432 Secs) (0.06 percent)
	average time per iteration      (0.643819 Secs)
	MKL Peak Memory Use:            (348397 KB - 340.23 MB)

Total Calculation Time (Ybus + PF): (3.960547 Secs)


Power flow solution... Successful!          (0.067121 Secs)
       update generators Pg and Qg          (0.001862 Secs) (2.77 percent)
       calculate branch flows               (0.003056 Secs) (4.55 percent)
       calculate line losses                (0.001119 Secs) (1.67 percent)
       calculate line charging injection    (0.001489 Secs) (2.22 percent)
       calculate partial derivatives        (0.055371 Secs) (82.49 percent)
       calculate misc. information          (0.001162 Secs) (1.73 percent)
       MKL Peak Memory Use:                 (279733 KB - 273.18 MB)

Total Calculation Time (Ybus + PF + Solution): (4.027668 Secs)


=================================================== System Summary ====================================================
             How many?                             How much?                      P (MW)                 Q (MVAr)        
-----------------------------------     -------------------------------------------------------------------------------  
Buses                        82000         Total Generation Capacity           1108790.54        -119742.09 to 503573.01
Generators                   13419               On-line Capacity               947996.89        -102677.89 to 434174.64
   Comitted                  10475               Actual Generation              835350.88              173513.59
   Offline                    2944         Load                                 812684.74              217505.56
Loads                        37755         Shunt (inj)                              -0.00              -45209.20
Shunts                        3952         Line Losess                           22666.14              263489.65
Branches                    104121         Brnach Charging (inj)                      -                352690.81
   In-Service               104121        
   Out-Of-Service                0        
Transformers                 20696        
 
 
                                        Minimum                                                   Maximum 
                         -------------------------------------                     ------------------------------------ 
Voltage Magnitude                0.942 p.u. @ bus  20903                             1.114 p.u   @ bus   48532
Voltage Angle                  -122.92 deg  @ bus  18874                             94.92 deg   @ bus   61584
P Losses                                  -                                          62.26 MW    @ line 3008126-3005049
Q Losses                                  -                                         784.74 MVAr  @ line  59757-59774
=======================================================================================================================


Case File Name = case_SyntheticUSA.m
OMP is Enabled
OMP Cores = 2
Solver is Set to Sparse

Loading case data... Successful! (0.398723 Secs)

Initializing case data... 
	Reordering bus numbers
  	Multiple reference Buses detected!
Successful! (5.029719 Secs)

Building Ybus... 
	MKL Peak Memory Use: 57263 KB -  55.92 MB
Successful! (0.074882 Secs)


CASE INFORMATION:
No. of Buses = 82000
No. of Branches = 104121
No. of PV Buses = 7739
No. of PQ Buses = 74258
No. of Generators = 13419
No. of Online Generators = 10475
Ref. Bus(es) = 30902, 77237, 81506, 

********************* Starting Power Flow Iterations (Sparse) *************************

Tolerance at F(x0) = 196.322388
Tolerance at iteration [1] = 15.2113294
Tolerance at iteration [2] = 13.8614136
Tolerance at iteration [3] = 1.5591087
Tolerance at iteration [4] = 0.0476932742
Tolerance at iteration [5] = 6.13304958e-05
Tolerance at iteration [6] = 1.20736505e-10
Power flow converged in [6] iterations!

********************************* End of Power Flow ***********************************

Power flow calculation... Successful!   (2.800449 Secs)
	memory allocation               (0.000681 Secs) (0.02 percent)
	initialize V, PVPQ, and F(X0)   (0.110915 Secs) (3.96 percent)
	calculate partial derivatives   (0.195115 Secs) (6.97 percent)
	form sparse jacobian arrays     (0.330213 Secs) (11.79 percent)
	form jacobian matirx            (0.024029 Secs) (0.86 percent)
	solve the linear system         (2.111113 Secs) (75.38 percent)
	update voltages                 (0.013843 Secs) (0.49 percent)
	calculate injected bus powers   (0.011240 Secs) (0.40 percent)
	calculate norm                  (0.001308 Secs) (0.05 percent)
	average time per iteration      (0.466741 Secs)
	MKL Peak Memory Use:            (368450 KB - 359.81 MB)

Total Calculation Time (Ybus + PF): (2.875331 Secs)


Power flow solution... Successful!          (0.068612 Secs)
       update generators Pg and Qg          (0.003410 Secs) (4.97 percent)
       calculate branch flows               (0.006973 Secs) (10.16 percent)
       calculate line losses                (0.002024 Secs) (2.95 percent)
       calculate line charging injection    (0.003207 Secs) (4.67 percent)
       calculate partial derivatives        (0.038350 Secs) (55.89 percent)
       calculate misc. information          (0.005599 Secs) (8.16 percent)
       MKL Peak Memory Use:                 (301474 KB - 294.41 MB)

Total Calculation Time (Ybus + PF + Solution): (2.943943 Secs)


=================================================== System Summary ====================================================
             How many?                             How much?                      P (MW)                 Q (MVAr)        
-----------------------------------     -------------------------------------------------------------------------------  
Buses                        82000         Total Generation Capacity           1108790.54        -119742.09 to 503573.01
Generators                   13419               On-line Capacity               947996.89        -102677.89 to 434174.64
   Comitted                  10475               Actual Generation              835350.88              173513.59
   Offline                    2944         Load                                 812684.74              217505.56
Loads                        37755         Shunt (inj)                              -0.00              -45209.20
Shunts                        3952         Line Losess                           22666.14              263489.65
Branches                    104121         Brnach Charging (inj)                      -                352690.81
   In-Service               104121        
   Out-Of-Service                0        
Transformers                 20696        
 
 
                                        Minimum                                                   Maximum 
                         -------------------------------------                     ------------------------------------ 
Voltage Magnitude                0.942 p.u. @ bus  20903                             1.114 p.u   @ bus   48532
Voltage Angle                  -122.92 deg  @ bus  18874                             94.92 deg   @ bus   61584
P Losses                                  -                                          62.26 MW    @ line 3008126-3005049
Q Losses                                  -                                         784.74 MVAr  @ line  59757-59774
=======================================================================================================================


Case File Name = case_SyntheticUSA.m
OMP is Enabled
OMP Cores = 2
Solver is Set to Sparse

Loading case data... Successful! (0.400459 Secs)

Initializing case data... 
	Reordering bus numbers
  	Multiple reference Buses detected!
Successful! (5.019736 Secs)

Building Ybus... 
	MKL Peak Memory Use: 57263 KB -  55.92 MB
Successful! (0.075164 Secs)


CASE INFORMATION:
No. of Buses = 82000
No. of Branches = 104121
No. of PV Buses = 7739
No. of PQ Buses = 74258
No. of Generators = 13419
No. of Online Generators = 10475
Ref. Bus(es) = 30902, 77237, 81506, 

********************* Starting Power Flow Iterations (Sparse) *************************

Tolerance at F(x0) = 196.322388
Tolerance at iteration [1] = 15.2113294
Tolerance at iteration [2] = 13.8614136
Tolerance at iteration [3] = 1.5591087
Tolerance at iteration [4] = 0.0476932742
Tolerance at iteration [5] = 6.13304961e-05
Tolerance at iteration [6] = 1.20972657e-10
Power flow converged in [6] iterations!

********************************* End of Power Flow ***********************************

Power flow calculation... Successful!   (2.686774 Secs)
	memory allocation               (0.000540 Secs) (0.02 percent)
	initialize V, PVPQ, and F(X0)   (0.110963 Secs) (4.13 percent)
	calculate partial derivatives   (0.161680 Secs) (6.02 percent)
	form sparse jacobian arrays     (0.326162 Secs) (12.14 percent)
	form jacobian matirx            (0.014312 Secs) (0.53 percent)
	solve the linear system         (2.051529 Secs) (76.36 percent)
	update voltages                 (0.011416 Secs) (0.42 percent)
	calculate injected bus powers   (0.007167 Secs) (0.27 percent)
	calculate norm                  (0.001296 Secs) (0.05 percent)
	average time per iteration      (0.447796 Secs)
	MKL Peak Memory Use:            (368369 KB - 359.74 MB)

Total Calculation Time (Ybus + PF): (2.761938 Secs)


Power flow solution... Successful!          (0.047640 Secs)
       update generators Pg and Qg          (0.002298 Secs) (4.82 percent)
       calculate branch flows               (0.003020 Secs) (6.34 percent)
       calculate line losses                (0.000871 Secs) (1.83 percent)
       calculate line charging injection    (0.001071 Secs) (2.25 percent)
       calculate partial derivatives        (0.035848 Secs) (75.25 percent)
       calculate misc. information          (0.001250 Secs) (2.62 percent)
       MKL Peak Memory Use:                 (301506 KB - 294.44 MB)

Total Calculation Time (Ybus + PF + Solution): (2.809578 Secs)


=================================================== System Summary ====================================================
             How many?                             How much?                      P (MW)                 Q (MVAr)        
-----------------------------------     -------------------------------------------------------------------------------  
Buses                        82000         Total Generation Capacity           1108790.54        -119742.09 to 503573.01
Generators                   13419               On-line Capacity               947996.89        -102677.89 to 434174.64
   Comitted                  10475               Actual Generation              835350.88              173513.59
   Offline                    2944         Load                                 812684.74              217505.56
Loads                        37755         Shunt (inj)                              -0.00              -45209.20
Shunts                        3952         Line Losess                           22666.14              263489.65
Branches                    104121         Brnach Charging (inj)                      -                352690.81
   In-Service               104121        
   Out-Of-Service                0        
Transformers                 20696        
 
 
                                        Minimum                                                   Maximum 
                         -------------------------------------                     ------------------------------------ 
Voltage Magnitude                0.942 p.u. @ bus  20903                             1.114 p.u   @ bus   48532
Voltage Angle                  -122.92 deg  @ bus  18874                             94.92 deg   @ bus   61584
P Losses                                  -                                          62.26 MW    @ line 3008126-3005049
Q Losses                                  -                                         784.74 MVAr  @ line  59757-59774
=======================================================================================================================


Case File Name = case_SyntheticUSA.m
OMP is Enabled
OMP Cores = 4
Solver is Set to Sparse

Loading case data... Successful! (0.398144 Secs)

Initializing case data... 
	Reordering bus numbers
  	Multiple reference Buses detected!
Successful! (5.026253 Secs)

Building Ybus... 
	MKL Peak Memory Use: 57263 KB -  55.92 MB
Successful! (0.060392 Secs)


CASE INFORMATION:
No. of Buses = 82000
No. of Branches = 104121
No. of PV Buses = 7739
No. of PQ Buses = 74258
No. of Generators = 13419
No. of Online Generators = 10475
Ref. Bus(es) = 30902, 77237, 81506, 

********************* Starting Power Flow Iterations (Sparse) *************************

Tolerance at F(x0) = 196.322388
Tolerance at iteration [1] = 15.2113294
Tolerance at iteration [2] = 13.8614136
Tolerance at iteration [3] = 1.5591087
Tolerance at iteration [4] = 0.0476932742
Tolerance at iteration [5] = 6.13304956e-05
Tolerance at iteration [6] = 1.20972657e-10
Power flow converged in [6] iterations!

********************************* End of Power Flow ***********************************

Power flow calculation... Successful!   (2.123658 Secs)
	memory allocation               (0.000908 Secs) (0.04 percent)
	initialize V, PVPQ, and F(X0)   (0.059510 Secs) (2.80 percent)
	calculate partial derivatives   (0.102989 Secs) (4.85 percent)
	form sparse jacobian arrays     (0.247565 Secs) (11.66 percent)
	form jacobian matirx            (0.008157 Secs) (0.38 percent)
	solve the linear system         (1.683261 Secs) (79.26 percent)
	update voltages                 (0.007851 Secs) (0.37 percent)
	calculate injected bus powers   (0.010199 Secs) (0.48 percent)
	calculate norm                  (0.000810 Secs) (0.04 percent)
	average time per iteration      (0.353943 Secs)
	MKL Peak Memory Use:            (412384 KB - 402.72 MB)

Total Calculation Time (Ybus + PF): (2.184050 Secs)


Power flow solution... Successful!          (0.083474 Secs)
       update generators Pg and Qg          (0.004126 Secs) (4.94 percent)
       calculate branch flows               (0.010283 Secs) (12.32 percent)
       calculate line losses                (0.003442 Secs) (4.12 percent)
       calculate line charging injection    (0.006346 Secs) (7.60 percent)
       calculate partial derivatives        (0.043517 Secs) (52.13 percent)
       calculate misc. information          (0.001284 Secs) (1.54 percent)
       MKL Peak Memory Use:                 (345036 KB - 336.95 MB)

Total Calculation Time (Ybus + PF + Solution): (2.267524 Secs)


=================================================== System Summary ====================================================
             How many?                             How much?                      P (MW)                 Q (MVAr)        
-----------------------------------     -------------------------------------------------------------------------------  
Buses                        82000         Total Generation Capacity           1108790.54        -119742.09 to 503573.01
Generators                   13419               On-line Capacity               947996.89        -102677.89 to 434174.64
   Comitted                  10475               Actual Generation              835350.88              173513.59
   Offline                    2944         Load                                 812684.74              217505.56
Loads                        37755         Shunt (inj)                              -0.00              -45209.20
Shunts                        3952         Line Losess                           22666.14              263489.65
Branches                    104121         Brnach Charging (inj)                      -                352690.81
   In-Service               104121        
   Out-Of-Service                0        
Transformers                 20696        
 
 
                                        Minimum                                                   Maximum 
                         -------------------------------------                     ------------------------------------ 
Voltage Magnitude                0.942 p.u. @ bus  20903                             1.114 p.u   @ bus   48531
Voltage Angle                  -122.92 deg  @ bus  18874                             94.92 deg   @ bus   61584
P Losses                                  -                                          62.26 MW    @ line 3008126-3005049
Q Losses                                  -                                         784.74 MVAr  @ line  59757-59774
=======================================================================================================================


Case File Name = case_SyntheticUSA.m
OMP is Enabled
OMP Cores = 4
Solver is Set to Sparse

Loading case data... Successful! (0.401468 Secs)

Initializing case data... 
	Reordering bus numbers
  	Multiple reference Buses detected!
Successful! (5.021100 Secs)

Building Ybus... 
	MKL Peak Memory Use: 57263 KB -  55.92 MB
Successful! (0.061304 Secs)


CASE INFORMATION:
No. of Buses = 82000
No. of Branches = 104121
No. of PV Buses = 7739
No. of PQ Buses = 74258
No. of Generators = 13419
No. of Online Generators = 10475
Ref. Bus(es) = 30902, 77237, 81506, 

********************* Starting Power Flow Iterations (Sparse) *************************

Tolerance at F(x0) = 196.322388
Tolerance at iteration [1] = 15.2113294
Tolerance at iteration [2] = 13.8614136
Tolerance at iteration [3] = 1.5591087
Tolerance at iteration [4] = 0.0476932742
Tolerance at iteration [5] = 6.13304956e-05
Tolerance at iteration [6] = 1.21071821e-10
Power flow converged in [6] iterations!

********************************* End of Power Flow ***********************************

Power flow calculation... Successful!   (1.973760 Secs)
	memory allocation               (0.000639 Secs) (0.03 percent)
	initialize V, PVPQ, and F(X0)   (0.059414 Secs) (3.01 percent)
	calculate partial derivatives   (0.103452 Secs) (5.24 percent)
	form sparse jacobian arrays     (0.248805 Secs) (12.61 percent)
	form jacobian matirx            (0.008132 Secs) (0.41 percent)
	solve the linear system         (1.539428 Secs) (77.99 percent)
	update voltages                 (0.006244 Secs) (0.32 percent)
	calculate injected bus powers   (0.005020 Secs) (0.25 percent)
	calculate norm                  (0.000825 Secs) (0.04 percent)
	average time per iteration      (0.328960 Secs)
	MKL Peak Memory Use:            (412461 KB - 402.79 MB)

Total Calculation Time (Ybus + PF): (2.035064 Secs)


Power flow solution... Successful!          (0.033955 Secs)
       update generators Pg and Qg          (0.003062 Secs) (9.02 percent)
       calculate branch flows               (0.002890 Secs) (8.51 percent)
       calculate line losses                (0.000423 Secs) (1.24 percent)
       calculate line charging injection    (0.000685 Secs) (2.02 percent)
       calculate partial derivatives        (0.022229 Secs) (65.47 percent)
       calculate misc. information          (0.001324 Secs) (3.90 percent)
       MKL Peak Memory Use:                 (344948 KB - 336.86 MB)

Total Calculation Time (Ybus + PF + Solution): (2.069019 Secs)


=================================================== System Summary ====================================================
             How many?                             How much?                      P (MW)                 Q (MVAr)        
-----------------------------------     -------------------------------------------------------------------------------  
Buses                        82000         Total Generation Capacity           1108790.54        -119742.09 to 503573.01
Generators                   13419               On-line Capacity               947996.89        -102677.89 to 434174.64
   Comitted                  10475               Actual Generation              835350.88              173513.59
   Offline                    2944         Load                                 812684.74              217505.56
Loads                        37755         Shunt (inj)                              -0.00              -45209.20
Shunts                        3952         Line Losess                           22666.14              263489.65
Branches                    104121         Brnach Charging (inj)                      -                352690.81
   In-Service               104121        
   Out-Of-Service                0        
Transformers                 20696        
 
 
                                        Minimum                                                   Maximum 
                         -------------------------------------                     ------------------------------------ 
Voltage Magnitude                0.942 p.u. @ bus  20903                             1.114 p.u   @ bus   48532
Voltage Angle                  -122.92 deg  @ bus  18874                             94.92 deg   @ bus   61584
P Losses                                  -                                          62.26 MW    @ line 3008126-3005049
Q Losses                                  -                                         784.74 MVAr  @ line  59757-59774
=======================================================================================================================


Case File Name = case_SyntheticUSA.m
OMP is Enabled
OMP Cores = 6
Solver is Set to Sparse

Loading case data... Successful! (0.399012 Secs)

Initializing case data... 
	Reordering bus numbers
  	Multiple reference Buses detected!
Successful! (5.018442 Secs)

Building Ybus... 
	MKL Peak Memory Use: 57263 KB -  55.92 MB
Successful! (0.067085 Secs)


CASE INFORMATION:
No. of Buses = 82000
No. of Branches = 104121
No. of PV Buses = 7739
No. of PQ Buses = 74258
No. of Generators = 13419
No. of Online Generators = 10475
Ref. Bus(es) = 30902, 77237, 81506, 

********************* Starting Power Flow Iterations (Sparse) *************************

Tolerance at F(x0) = 196.322388
Tolerance at iteration [1] = 15.2113294
Tolerance at iteration [2] = 13.8614136
Tolerance at iteration [3] = 1.5591087
Tolerance at iteration [4] = 0.0476932742
Tolerance at iteration [5] = 6.13304958e-05
Tolerance at iteration [6] = 1.21022239e-10
Power flow converged in [6] iterations!

********************************* End of Power Flow ***********************************

Power flow calculation... Successful!   (1.958030 Secs)
	memory allocation               (0.000552 Secs) (0.03 percent)
	initialize V, PVPQ, and F(X0)   (0.040150 Secs) (2.05 percent)
	calculate partial derivatives   (0.085406 Secs) (4.36 percent)
	form sparse jacobian arrays     (0.223642 Secs) (11.42 percent)
	form jacobian matirx            (0.006207 Secs) (0.32 percent)
	solve the linear system         (1.593171 Secs) (81.37 percent)
	update voltages                 (0.004325 Secs) (0.22 percent)
	calculate injected bus powers   (0.003643 Secs) (0.19 percent)
	calculate norm                  (0.000650 Secs) (0.03 percent)
	average time per iteration      (0.326338 Secs)
	MKL Peak Memory Use:            (457316 KB - 446.60 MB)

Total Calculation Time (Ybus + PF): (2.025114 Secs)


Power flow solution... Successful!          (0.025499 Secs)
       update generators Pg and Qg          (0.002686 Secs) (10.53 percent)
       calculate branch flows               (0.002593 Secs) (10.17 percent)
       calculate line losses                (0.000341 Secs) (1.34 percent)
       calculate line charging injection    (0.000457 Secs) (1.79 percent)
       calculate partial derivatives        (0.015062 Secs) (59.07 percent)
       calculate misc. information          (0.001275 Secs) (5.00 percent)
       MKL Peak Memory Use:                 (388590 KB - 379.48 MB)

Total Calculation Time (Ybus + PF + Solution): (2.050614 Secs)


=================================================== System Summary ====================================================
             How many?                             How much?                      P (MW)                 Q (MVAr)        
-----------------------------------     -------------------------------------------------------------------------------  
Buses                        82000         Total Generation Capacity           1108790.54        -119742.09 to 503573.01
Generators                   13419               On-line Capacity               947996.89        -102677.89 to 434174.64
   Comitted                  10475               Actual Generation              835350.88              173513.59
   Offline                    2944         Load                                 812684.74              217505.56
Loads                        37755         Shunt (inj)                              -0.00              -45209.20
Shunts                        3952         Line Losess                           22666.14              263489.65
Branches                    104121         Brnach Charging (inj)                      -                352690.81
   In-Service               104121        
   Out-Of-Service                0        
Transformers                 20696        
 
 
                                        Minimum                                                   Maximum 
                         -------------------------------------                     ------------------------------------ 
Voltage Magnitude                0.942 p.u. @ bus  20903                             1.114 p.u   @ bus   48532
Voltage Angle                  -122.92 deg  @ bus  18874                             94.92 deg   @ bus   61584
P Losses                                  -                                          62.26 MW    @ line 3008126-3005049
Q Losses                                  -                                         784.74 MVAr  @ line  59757-59774
=======================================================================================================================


Case File Name = case_SyntheticUSA.m
OMP is Enabled
OMP Cores = 6
Solver is Set to Sparse

Loading case data... Successful! (0.401879 Secs)

Initializing case data... 
	Reordering bus numbers
  	Multiple reference Buses detected!
Successful! (5.018388 Secs)

Building Ybus... 
	MKL Peak Memory Use: 57263 KB -  55.92 MB
Successful! (0.058410 Secs)


CASE INFORMATION:
No. of Buses = 82000
No. of Branches = 104121
No. of PV Buses = 7739
No. of PQ Buses = 74258
No. of Generators = 13419
No. of Online Generators = 10475
Ref. Bus(es) = 30902, 77237, 81506, 

********************* Starting Power Flow Iterations (Sparse) *************************

Tolerance at F(x0) = 196.322388
Tolerance at iteration [1] = 15.2113294
Tolerance at iteration [2] = 13.8614136
Tolerance at iteration [3] = 1.5591087
Tolerance at iteration [4] = 0.0476932742
Tolerance at iteration [5] = 6.13304956e-05
Tolerance at iteration [6] = 1.21134011e-10
Power flow converged in [6] iterations!

********************************* End of Power Flow ***********************************

Power flow calculation... Successful!   (1.949901 Secs)
	memory allocation               (0.000768 Secs) (0.04 percent)
	initialize V, PVPQ, and F(X0)   (0.040163 Secs) (2.06 percent)
	calculate partial derivatives   (0.084292 Secs) (4.32 percent)
	form sparse jacobian arrays     (0.223756 Secs) (11.48 percent)
	form jacobian matirx            (0.006092 Secs) (0.31 percent)
	solve the linear system         (1.584595 Secs) (81.27 percent)
	update voltages                 (0.004404 Secs) (0.23 percent)
	calculate injected bus powers   (0.003607 Secs) (0.18 percent)
	calculate norm                  (0.000623 Secs) (0.03 percent)
	average time per iteration      (0.324984 Secs)
	MKL Peak Memory Use:            (457111 KB - 446.40 MB)

Total Calculation Time (Ybus + PF): (2.008312 Secs)


Power flow solution... Successful!          (0.029054 Secs)
       update generators Pg and Qg          (0.003163 Secs) (10.88 percent)
       calculate branch flows               (0.002511 Secs) (8.64 percent)
       calculate line losses                (0.000331 Secs) (1.14 percent)
       calculate line charging injection    (0.000401 Secs) (1.38 percent)
       calculate partial derivatives        (0.018253 Secs) (62.82 percent)
       calculate misc. information          (0.001252 Secs) (4.31 percent)
       MKL Peak Memory Use:                 (388470 KB - 379.37 MB)

Total Calculation Time (Ybus + PF + Solution): (2.037366 Secs)


=================================================== System Summary ====================================================
             How many?                             How much?                      P (MW)                 Q (MVAr)        
-----------------------------------     -------------------------------------------------------------------------------  
Buses                        82000         Total Generation Capacity           1108790.54        -119742.09 to 503573.01
Generators                   13419               On-line Capacity               947996.89        -102677.89 to 434174.64
   Comitted                  10475               Actual Generation              835350.88              173513.59
   Offline                    2944         Load                                 812684.74              217505.56
Loads                        37755         Shunt (inj)                              -0.00              -45209.20
Shunts                        3952         Line Losess                           22666.14              263489.65
Branches                    104121         Brnach Charging (inj)                      -                352690.81
   In-Service               104121        
   Out-Of-Service                0        
Transformers                 20696        
 
 
                                        Minimum                                                   Maximum 
                         -------------------------------------                     ------------------------------------ 
Voltage Magnitude                0.942 p.u. @ bus  20903                             1.114 p.u   @ bus   48532
Voltage Angle                  -122.92 deg  @ bus  18874                             94.92 deg   @ bus   61584
P Losses                                  -                                          62.26 MW    @ line 3008126-3005049
Q Losses                                  -                                         784.74 MVAr  @ line  59757-59774
=======================================================================================================================


Case File Name = case_SyntheticUSA.m
OMP is Enabled
OMP Cores = 8
Solver is Set to Sparse

Loading case data... Successful! (0.399019 Secs)

Initializing case data... 
	Reordering bus numbers
  	Multiple reference Buses detected!
Successful! (5.064396 Secs)

Building Ybus... 
	MKL Peak Memory Use: 57263 KB -  55.92 MB
Successful! (0.059399 Secs)


CASE INFORMATION:
No. of Buses = 82000
No. of Branches = 104121
No. of PV Buses = 7739
No. of PQ Buses = 74258
No. of Generators = 13419
No. of Online Generators = 10475
Ref. Bus(es) = 30902, 77237, 81506, 

********************* Starting Power Flow Iterations (Sparse) *************************

Tolerance at F(x0) = 196.322388
Tolerance at iteration [1] = 15.2113294
Tolerance at iteration [2] = 13.8614136
Tolerance at iteration [3] = 1.5591087
Tolerance at iteration [4] = 0.0476932742
Tolerance at iteration [5] = 6.13304955e-05
Tolerance at iteration [6] = 1.21159227e-10
Power flow converged in [6] iterations!

********************************* End of Power Flow ***********************************

Power flow calculation... Successful!   (1.740323 Secs)
	memory allocation               (0.000655 Secs) (0.04 percent)
	initialize V, PVPQ, and F(X0)   (0.030738 Secs) (1.77 percent)
	calculate partial derivatives   (0.075888 Secs) (4.36 percent)
	form sparse jacobian arrays     (0.215704 Secs) (12.39 percent)
	form jacobian matirx            (0.004798 Secs) (0.28 percent)
	solve the linear system         (1.404082 Secs) (80.68 percent)
	update voltages                 (0.003404 Secs) (0.20 percent)
	calculate injected bus powers   (0.003094 Secs) (0.18 percent)
	calculate norm                  (0.000512 Secs) (0.03 percent)
	average time per iteration      (0.290054 Secs)
	MKL Peak Memory Use:            (502291 KB - 490.52 MB)

Total Calculation Time (Ybus + PF): (1.799721 Secs)


Power flow solution... Successful!          (0.024278 Secs)
       update generators Pg and Qg          (0.003338 Secs) (13.75 percent)
       calculate branch flows               (0.002462 Secs) (10.14 percent)
       calculate line losses                (0.000277 Secs) (1.14 percent)
       calculate line charging injection    (0.000345 Secs) (1.42 percent)
       calculate partial derivatives        (0.013426 Secs) (55.30 percent)
       calculate misc. information          (0.001274 Secs) (5.25 percent)
       MKL Peak Memory Use:                 (432105 KB - 421.98 MB)

Total Calculation Time (Ybus + PF + Solution): (1.823999 Secs)


=================================================== System Summary ====================================================
             How many?                             How much?                      P (MW)                 Q (MVAr)        
-----------------------------------     -------------------------------------------------------------------------------  
Buses                        82000         Total Generation Capacity           1108790.54        -119742.09 to 503573.01
Generators                   13419               On-line Capacity               947996.89        -102677.89 to 434174.64
   Comitted                  10475               Actual Generation              835350.88              173513.59
   Offline                    2944         Load                                 812684.74              217505.56
Loads                        37755         Shunt (inj)                              -0.00              -45209.20
Shunts                        3952         Line Losess                           22666.14              263489.65
Branches                    104121         Brnach Charging (inj)                      -                352690.81
   In-Service               104121        
   Out-Of-Service                0        
Transformers                 20696        
 
 
                                        Minimum                                                   Maximum 
                         -------------------------------------                     ------------------------------------ 
Voltage Magnitude                0.942 p.u. @ bus  20903                             1.114 p.u   @ bus   48532
Voltage Angle                  -122.92 deg  @ bus  18874                             94.92 deg   @ bus   61584
P Losses                                  -                                          62.26 MW    @ line 3008126-3005049
Q Losses                                  -                                         784.74 MVAr  @ line  59757-59774
=======================================================================================================================


Case File Name = case_SyntheticUSA.m
OMP is Enabled
OMP Cores = 8
Solver is Set to Sparse

Loading case data... Successful! (0.397068 Secs)

Initializing case data... 
	Reordering bus numbers
  	Multiple reference Buses detected!
Successful! (5.019465 Secs)

Building Ybus... 
	MKL Peak Memory Use: 57263 KB -  55.92 MB
Successful! (0.064815 Secs)


CASE INFORMATION:
No. of Buses = 82000
No. of Branches = 104121
No. of PV Buses = 7739
No. of PQ Buses = 74258
No. of Generators = 13419
No. of Online Generators = 10475
Ref. Bus(es) = 30902, 77237, 81506, 

********************* Starting Power Flow Iterations (Sparse) *************************

Tolerance at F(x0) = 196.322388
Tolerance at iteration [1] = 15.2113294
Tolerance at iteration [2] = 13.8614136
Tolerance at iteration [3] = 1.5591087
Tolerance at iteration [4] = 0.0476932742
Tolerance at iteration [5] = 6.13304959e-05
Tolerance at iteration [6] = 1.20897859e-10
Power flow converged in [6] iterations!

********************************* End of Power Flow ***********************************

Power flow calculation... Successful!   (1.728337 Secs)
	memory allocation               (0.000571 Secs) (0.03 percent)
	initialize V, PVPQ, and F(X0)   (0.030707 Secs) (1.78 percent)
	calculate partial derivatives   (0.073361 Secs) (4.24 percent)
	form sparse jacobian arrays     (0.214153 Secs) (12.39 percent)
	form jacobian matirx            (0.004585 Secs) (0.27 percent)
	solve the linear system         (1.396231 Secs) (80.78 percent)
	update voltages                 (0.003495 Secs) (0.20 percent)
	calculate injected bus powers   (0.002954 Secs) (0.17 percent)
	calculate norm                  (0.000503 Secs) (0.03 percent)
	average time per iteration      (0.288056 Secs)
	MKL Peak Memory Use:            (502168 KB - 490.40 MB)

Total Calculation Time (Ybus + PF): (1.793152 Secs)


Power flow solution... Successful!          (0.026421 Secs)
       update generators Pg and Qg          (0.003112 Secs) (11.78 percent)
       calculate branch flows               (0.002642 Secs) (10.00 percent)
       calculate line losses                (0.000292 Secs) (1.11 percent)
       calculate line charging injection    (0.000371 Secs) (1.40 percent)
       calculate partial derivatives        (0.015720 Secs) (59.50 percent)
       calculate misc. information          (0.001274 Secs) (4.82 percent)
       MKL Peak Memory Use:                 (431985 KB - 421.86 MB)

Total Calculation Time (Ybus + PF + Solution): (1.819572 Secs)


=================================================== System Summary ====================================================
             How many?                             How much?                      P (MW)                 Q (MVAr)        
-----------------------------------     -------------------------------------------------------------------------------  
Buses                        82000         Total Generation Capacity           1108790.54        -119742.09 to 503573.01
Generators                   13419               On-line Capacity               947996.89        -102677.89 to 434174.64
   Comitted                  10475               Actual Generation              835350.88              173513.59
   Offline                    2944         Load                                 812684.74              217505.56
Loads                        37755         Shunt (inj)                              -0.00              -45209.20
Shunts                        3952         Line Losess                           22666.14              263489.65
Branches                    104121         Brnach Charging (inj)                      -                352690.81
   In-Service               104121        
   Out-Of-Service                0        
Transformers                 20696        
 
 
                                        Minimum                                                   Maximum 
                         -------------------------------------                     ------------------------------------ 
Voltage Magnitude                0.942 p.u. @ bus  20903                             1.114 p.u   @ bus   48532
Voltage Angle                  -122.92 deg  @ bus  18874                             94.92 deg   @ bus   61584
P Losses                                  -                                          62.26 MW    @ line 3008126-3005049
Q Losses                                  -                                         784.74 MVAr  @ line  59757-59774
=======================================================================================================================


Case File Name = case_SyntheticUSA.m
OMP is Enabled
OMP Cores = 10
Solver is Set to Sparse

Loading case data... Successful! (0.409913 Secs)

Initializing case data... 
	Reordering bus numbers
  	Multiple reference Buses detected!
Successful! (5.019888 Secs)

Building Ybus... 
	MKL Peak Memory Use: 57951 KB -  56.59 MB
Successful! (0.060634 Secs)


CASE INFORMATION:
No. of Buses = 82000
No. of Branches = 104121
No. of PV Buses = 7739
No. of PQ Buses = 74258
No. of Generators = 13419
No. of Online Generators = 10475
Ref. Bus(es) = 30902, 77237, 81506, 

********************* Starting Power Flow Iterations (Sparse) *************************

Tolerance at F(x0) = 196.322388
Tolerance at iteration [1] = 15.2113294
Tolerance at iteration [2] = 13.8614136
Tolerance at iteration [3] = 1.5591087
Tolerance at iteration [4] = 0.0476932742
Tolerance at iteration [5] = 6.13304955e-05
Tolerance at iteration [6] = 1.21159227e-10
Power flow converged in [6] iterations!

********************************* End of Power Flow ***********************************

Power flow calculation... Successful!   (1.675945 Secs)
	memory allocation               (0.000633 Secs) (0.04 percent)
	initialize V, PVPQ, and F(X0)   (0.024776 Secs) (1.48 percent)
	calculate partial derivatives   (0.067135 Secs) (4.01 percent)
	form sparse jacobian arrays     (0.207497 Secs) (12.38 percent)
	form jacobian matirx            (0.004170 Secs) (0.25 percent)
	solve the linear system         (1.362820 Secs) (81.32 percent)
	update voltages                 (0.002910 Secs) (0.17 percent)
	calculate injected bus powers   (0.002541 Secs) (0.15 percent)
	calculate norm                  (0.000450 Secs) (0.03 percent)
	average time per iteration      (0.279324 Secs)
	MKL Peak Memory Use:            (547497 KB - 534.67 MB)

Total Calculation Time (Ybus + PF): (1.736580 Secs)


Power flow solution... Successful!          (0.025125 Secs)
       update generators Pg and Qg          (0.003508 Secs) (13.96 percent)
       calculate branch flows               (0.002620 Secs) (10.43 percent)
       calculate line losses                (0.000254 Secs) (1.01 percent)
       calculate line charging injection    (0.000317 Secs) (1.26 percent)
       calculate partial derivatives        (0.014167 Secs) (56.39 percent)
       calculate misc. information          (0.001309 Secs) (5.21 percent)
       MKL Peak Memory Use:                 (475739 KB - 464.59 MB)

Total Calculation Time (Ybus + PF + Solution): (1.761704 Secs)


=================================================== System Summary ====================================================
             How many?                             How much?                      P (MW)                 Q (MVAr)        
-----------------------------------     -------------------------------------------------------------------------------  
Buses                        82000         Total Generation Capacity           1108790.54        -119742.09 to 503573.01
Generators                   13419               On-line Capacity               947996.89        -102677.89 to 434174.64
   Comitted                  10475               Actual Generation              835350.88              173513.59
   Offline                    2944         Load                                 812684.74              217505.56
Loads                        37755         Shunt (inj)                              -0.00              -45209.20
Shunts                        3952         Line Losess                           22666.14              263489.65
Branches                    104121         Brnach Charging (inj)                      -                352690.81
   In-Service               104121        
   Out-Of-Service                0        
Transformers                 20696        
 
 
                                        Minimum                                                   Maximum 
                         -------------------------------------                     ------------------------------------ 
Voltage Magnitude                0.942 p.u. @ bus  20903                             1.114 p.u   @ bus   48532
Voltage Angle                  -122.92 deg  @ bus  18874                             94.92 deg   @ bus   61584
P Losses                                  -                                          62.26 MW    @ line 3008126-3005049
Q Losses                                  -                                         784.74 MVAr  @ line  59757-59774
=======================================================================================================================


Case File Name = case_SyntheticUSA.m
OMP is Enabled
OMP Cores = 10
Solver is Set to Sparse

Loading case data... Successful! (0.401198 Secs)

Initializing case data... 
	Reordering bus numbers
  	Multiple reference Buses detected!
Successful! (5.020894 Secs)

Building Ybus... 
	MKL Peak Memory Use: 57951 KB -  56.59 MB
Successful! (0.063830 Secs)


CASE INFORMATION:
No. of Buses = 82000
No. of Branches = 104121
No. of PV Buses = 7739
No. of PQ Buses = 74258
No. of Generators = 13419
No. of Online Generators = 10475
Ref. Bus(es) = 30902, 77237, 81506, 

********************* Starting Power Flow Iterations (Sparse) *************************

Tolerance at F(x0) = 196.322388
Tolerance at iteration [1] = 15.2113294
Tolerance at iteration [2] = 13.8614136
Tolerance at iteration [3] = 1.5591087
Tolerance at iteration [4] = 0.0476932742
Tolerance at iteration [5] = 6.13304956e-05
Tolerance at iteration [6] = 1.21097037e-10
Power flow converged in [6] iterations!

********************************* End of Power Flow ***********************************

Power flow calculation... Successful!   (1.693634 Secs)
	memory allocation               (0.000848 Secs) (0.05 percent)
	initialize V, PVPQ, and F(X0)   (0.024946 Secs) (1.47 percent)
	calculate partial derivatives   (0.067028 Secs) (3.96 percent)
	form sparse jacobian arrays     (0.210311 Secs) (12.42 percent)
	form jacobian matirx            (0.004241 Secs) (0.25 percent)
	solve the linear system         (1.380036 Secs) (81.48 percent)
	update voltages                 (0.002932 Secs) (0.17 percent)
	calculate injected bus powers   (0.002555 Secs) (0.15 percent)
	calculate norm                  (0.000452 Secs) (0.03 percent)
	average time per iteration      (0.282272 Secs)
	MKL Peak Memory Use:            (547397 KB - 534.57 MB)

Total Calculation Time (Ybus + PF): (1.757463 Secs)


Power flow solution... Successful!          (0.022752 Secs)
       update generators Pg and Qg          (0.003255 Secs) (14.31 percent)
       calculate branch flows               (0.002604 Secs) (11.44 percent)
       calculate line losses                (0.000245 Secs) (1.08 percent)
       calculate line charging injection    (0.000281 Secs) (1.23 percent)
       calculate partial derivatives        (0.012168 Secs) (53.48 percent)
       calculate misc. information          (0.001294 Secs) (5.69 percent)
       MKL Peak Memory Use:                 (475691 KB - 464.54 MB)

Total Calculation Time (Ybus + PF + Solution): (1.780215 Secs)


=================================================== System Summary ====================================================
             How many?                             How much?                      P (MW)                 Q (MVAr)        
-----------------------------------     -------------------------------------------------------------------------------  
Buses                        82000         Total Generation Capacity           1108790.54        -119742.09 to 503573.01
Generators                   13419               On-line Capacity               947996.89        -102677.89 to 434174.64
   Comitted                  10475               Actual Generation              835350.88              173513.59
   Offline                    2944         Load                                 812684.74              217505.56
Loads                        37755         Shunt (inj)                              -0.00              -45209.20
Shunts                        3952         Line Losess                           22666.14              263489.65
Branches                    104121         Brnach Charging (inj)                      -                352690.81
   In-Service               104121        
   Out-Of-Service                0        
Transformers                 20696        
 
 
                                        Minimum                                                   Maximum 
                         -------------------------------------                     ------------------------------------ 
Voltage Magnitude                0.942 p.u. @ bus  20903                             1.114 p.u   @ bus   48532
Voltage Angle                  -122.92 deg  @ bus  18874                             94.92 deg   @ bus   61584
P Losses                                  -                                          62.26 MW    @ line 3008126-3005049
Q Losses                                  -                                         784.74 MVAr  @ line  59757-59774
=======================================================================================================================


Case File Name = case_SyntheticUSA.m
OMP is Enabled
OMP Cores = 12
Solver is Set to Sparse

Loading case data... Successful! (0.398637 Secs)

Initializing case data... 
	Reordering bus numbers
  	Multiple reference Buses detected!
Successful! (5.017691 Secs)

Building Ybus... 
	MKL Peak Memory Use: 59232 KB -  57.84 MB
Successful! (0.074920 Secs)


CASE INFORMATION:
No. of Buses = 82000
No. of Branches = 104121
No. of PV Buses = 7739
No. of PQ Buses = 74258
No. of Generators = 13419
No. of Online Generators = 10475
Ref. Bus(es) = 30902, 77237, 81506, 

********************* Starting Power Flow Iterations (Sparse) *************************

Tolerance at F(x0) = 196.322388
Tolerance at iteration [1] = 15.2113294
Tolerance at iteration [2] = 13.8614136
Tolerance at iteration [3] = 1.5591087
Tolerance at iteration [4] = 0.0476932742
Tolerance at iteration [5] = 6.13304959e-05
Tolerance at iteration [6] = 1.20935683e-10
Power flow converged in [6] iterations!

********************************* End of Power Flow ***********************************

Power flow calculation... Successful!   (1.667562 Secs)
	memory allocation               (0.000585 Secs) (0.04 percent)
	initialize V, PVPQ, and F(X0)   (0.020928 Secs) (1.25 percent)
	calculate partial derivatives   (0.066532 Secs) (3.99 percent)
	form sparse jacobian arrays     (0.201701 Secs) (12.10 percent)
	form jacobian matirx            (0.004738 Secs) (0.28 percent)
	solve the linear system         (1.367615 Secs) (82.01 percent)
	update voltages                 (0.002487 Secs) (0.15 percent)
	calculate injected bus powers   (0.002304 Secs) (0.14 percent)
	calculate norm                  (0.000431 Secs) (0.03 percent)
	average time per iteration      (0.277927 Secs)
	MKL Peak Memory Use:            (592485 KB - 578.60 MB)

Total Calculation Time (Ybus + PF): (1.742482 Secs)


Power flow solution... Successful!          (0.021640 Secs)
       update generators Pg and Qg          (0.003070 Secs) (14.19 percent)
       calculate branch flows               (0.002408 Secs) (11.13 percent)
       calculate line losses                (0.000223 Secs) (1.03 percent)
       calculate line charging injection    (0.000277 Secs) (1.28 percent)
       calculate partial derivatives        (0.011603 Secs) (53.62 percent)
       calculate misc. information          (0.001281 Secs) (5.92 percent)
       MKL Peak Memory Use:                 (519189 KB - 507.02 MB)

Total Calculation Time (Ybus + PF + Solution): (1.764122 Secs)


=================================================== System Summary ====================================================
             How many?                             How much?                      P (MW)                 Q (MVAr)        
-----------------------------------     -------------------------------------------------------------------------------  
Buses                        82000         Total Generation Capacity           1108790.54        -119742.09 to 503573.01
Generators                   13419               On-line Capacity               947996.89        -102677.89 to 434174.64
   Comitted                  10475               Actual Generation              835350.88              173513.59
   Offline                    2944         Load                                 812684.74              217505.56
Loads                        37755         Shunt (inj)                              -0.00              -45209.20
Shunts                        3952         Line Losess                           22666.14              263489.65
Branches                    104121         Brnach Charging (inj)                      -                352690.81
   In-Service               104121        
   Out-Of-Service                0        
Transformers                 20696        
 
 
                                        Minimum                                                   Maximum 
                         -------------------------------------                     ------------------------------------ 
Voltage Magnitude                0.942 p.u. @ bus  20903                             1.114 p.u   @ bus   48532
Voltage Angle                  -122.92 deg  @ bus  18874                             94.92 deg   @ bus   61584
P Losses                                  -                                          62.26 MW    @ line 3008126-3005049
Q Losses                                  -                                         784.74 MVAr  @ line  59757-59774
=======================================================================================================================


Case File Name = case_SyntheticUSA.m
...